/*--------------------------------*- C++ -*----------------------------------*\
| =========                 |                                                 |
| \\      /  F ield         | OpenFOAM: The Open Source CFD Toolbox           |
|  \\    /   O peration     | Version:  3.0.1                                 |
|   \\  /    A nd           | Web:      www.OpenFOAM.org                      |
|    \\/     M anipulation  |                                                 |
\*---------------------------------------------------------------------------*/
FoamFile
{
    version     2.0;
    format      ascii;
    class       dictionary;
    location    "system";
    object      setFieldsDict;
}
// * * * * * * * * * * * * * * * * * * * * * * * * * * * * * * * * * * * * * //

defaultFieldValues
(
    volScalarFieldValue alpha.metal 1
volScalarFieldValue xi 0.0
);

regions
(





cylinderToCell
{
    p1 (0.00045 0.00055 -1); //Min
    p2 (0.00045 0.00055 1); //Max
    radius 1e-5;
        
    fieldValues
    (
        volScalarFieldValue alpha.metal 1
        volScalarFieldValue xi 1.0
        // volScalarFieldValue n.0 1.0
    );
}

  //    boxToCell
  //    {
  //        box (-1 10e-6 20e-6) (1 70e-6 180e-6);
  //        fieldValues
  //        (
  //    		volScalarFieldValue T 1000
	 // volScalarFieldValue xi 0.0
  //       );
  //   }



);


// ************************************************************************* //
