/*--------------------------------*- C++ -*----------------------------------*\
  =========                 |
  \\      /  F ield         | OpenFOAM: The Open Source CFD Toolbox
   \\    /   O peration     | Website:  https://openfoam.org
    \\  /    A nd           | Version:  6
     \\/     M anipulation  |
\*---------------------------------------------------------------------------*/
FoamFile
{
    version     2.0;
    format      ascii;
    class       dictionary;
    location    "constant";
    object      PhaseFieldProperties;
}
// * * * * * * * * * * * * * * * * * * * * * * * * * * * * * * * * * * * * * //

grainNumThreshold 0.5;


Aniso_strength 0.5;


//Kg	0.225e-6;
gamma_pf	1.5;
//m_g	450000;
//Lg	1.285;
//m_p	1200000;
//Lp	0.5;
//Kp	1.5e-6;


sigma_P	1.0;
sigma_G	0.25;
lp	2e-6;
lg	2e-6;
deltaf_g	0.125;
deltaf_p	0.25;
D0	1.5;//0.034;
Qg	1000;//140e3;


//N_Phases 201;
//Voronoi Tesselation Parameters
N_Seeds 3; //used to seed the initial microstructure with tesselatefoam

Xmin -0.05e-6;
Xmax 0.05e-6;
Ymin 5e-5;
Ymax 1.5e-4;
Zmin 0.0e-04;
Zmax 6e-4;
//Voronoi Tesselation Parameters
