/*--------------------------------*- C++ -*----------------------------------*\
  =========                 |
  \\      /  F ield         | OpenFOAM: The Open Source CFD Toolbox
   \\    /   O peration     | Website:  https://openfoam.org
    \\  /    A nd           | Version:  6
     \\/     M anipulation  |
\*---------------------------------------------------------------------------*/
FoamFile
{
    version     2.0;
    format      ascii;
    class       dictionary;
    location    "constant";
    object      PhaseFieldProperties;
}
// * * * * * * * * * * * * * * * * * * * * * * * * * * * * * * * * * * * * * //

grainNumThreshold 0.5;


Aniso_strength 0.1;

gamma_pf	1.5;



sigma_P	0.1;
sigma_G	0.2;
lp	1e-6;
lg	1e-6;
deltaf_g	0.25;
deltaf_p	0.125;
D0	5.0;//0.034;
Qg	20000;//140e3;


//N_Phases 201;
//Voronoi Tesselation Parameters
N_Seeds 600; //used to seed the initial microstructure with tesselatefoam

Xmin -0.05e-6;
Xmax 0.05e-6;
Ymin 5e-5;
Ymax 1.5e-4;
Zmin 0.0e-04;
Zmax 6.0e-4;
//Voronoi Tesselation Parameters


write_ni_all  false;
write_ni_active  false;
