/*--------------------------------*- C++ -*----------------------------------*\
  =========                 |
  \\      /  F ield         | OpenFOAM: The Open Source CFD Toolbox
   \\    /   O peration     | Website:  https://openfoam.org
    \\  /    A nd           | Version:  6
     \\/     M anipulation  |
\*---------------------------------------------------------------------------*/
FoamFile
{
    version     2.0;
    format      ascii;
    class       dictionary;
    location    "constant";
    object      PhaseFieldProperties;
}
// * * * * * * * * * * * * * * * * * * * * * * * * * * * * * * * * * * * * * //
grainNumThreshold 0.5;

//N_Phases	500;

Aniso_strength 0.0;

gamma_pf	1.5;

sigma_P	0.2;
sigma_G	0.5;
lp	1.0e-5;
lg	1.0e-5;
deltaf_g	0.125;
deltaf_p	0.125;
D0	5.0;//0.034;
Qg	20000;//140e3;



//Voronoi Tesselation Parameters
N_Seeds 5;//1415; //used to seed the initial microstructure with tesselatefoam

Xmin -0.05e-5;
Xmax 0.05e-5;
Ymin 0e-5;
Ymax 20e-5;
Zmin 0.0e-5;
Zmax 60e-5;
//Voronoi Tesselation Parameters

