/*--------------------------------*- C++ -*----------------------------------*\
  =========                 |
  \\      /  F ield         | OpenFOAM: The Open Source CFD Toolbox
   \\    /   O peration     | Website:  https://openfoam.org
    \\  /    A nd           | Version:  6
     \\/     M anipulation  |
\*---------------------------------------------------------------------------*/
FoamFile
{
    version     2.0;
    format      ascii;
    class       dictionary;
    location    "constant";
    object      PhaseFieldProperties;
}
// * * * * * * * * * * * * * * * * * * * * * * * * * * * * * * * * * * * * * //


N_Phases 1000;

Aniso_strength 0.5;

gamma_pf	1.5;

sigma_P	1.0;
sigma_G	0.25;
lp	2.0e-4;
lg	2.0e-4;
deltaf_g	0.125;
deltaf_p	0.25;
D0	5.0;//0.034;
Qg	20000;//140e3;



//Voronoi Tesselation Parameters
N_Seeds 999; //used to seed the initial microstructure with tesselatefoam

Xmin -15e-3;
Xmax 15e-3;
Ymin 2.5e-3;
Ymax 27.5e-3;
Zmin -15e-3;
Zmax 15e-3;
//Voronoi Tesselation Parameters

