/*--------------------------------*- C++ -*----------------------------------*\
  =========                 |
  \\      /  F ield         | OpenFOAM: The Open Source CFD Toolbox
   \\    /   O peration     | Website:  https://openfoam.org
    \\  /    A nd           | Version:  6
     \\/     M anipulation  |
\*---------------------------------------------------------------------------*/
FoamFile
{
    version     2.0;
    format      ascii;
    class       dictionary;
    location    "constant";
    object      PhaseFieldProperties;
}
// * * * * * * * * * * * * * * * * * * * * * * * * * * * * * * * * * * * * * //


N_Phases 100;

gamma_pf	1.5;

sigma_P	1.0;
sigma_G	0.25;
lp	0.2e-3;
lg	0.2e-3;
deltaf_g	0.125;
deltaf_p	0.25;
D0	1.5;//0.034;
Qg	1000;//140e3;



//Voronoi Tesselation Parameters
N_Seeds 99; //used to seed the initial microstructure with tesselatefoam

Xmin -0.05e-3;
Xmax 0.05e-3;
Ymin 2.5e-3;
Ymax 27.5e-3;
Zmin 0.0;
Zmax 10e-3;
//Voronoi Tesselation Parameters

