/*--------------------------------*- C++ -*----------------------------------*\
| =========                 |                                                 |
| \\      /  F ield         | OpenFOAM: The Open Source CFD Toolbox           |
|  \\    /   O peration     | Version:  3.0.1                                 |
|   \\  /    A nd           | Web:      www.OpenFOAM.org                      |
|    \\/     M anipulation  |                                                 |
\*---------------------------------------------------------------------------*/
FoamFile
{
    version     2.0;
    format      ascii;
    class       dictionary;
    location    "system";
    object      setFieldsDict;
}
// * * * * * * * * * * * * * * * * * * * * * * * * * * * * * * * * * * * * * //

defaultFieldValues
(
    volScalarFieldValue alpha.metal 1
    volScalarFieldValue xi 0.0
);





regions
(



sphereToCell 
    { 
        centre ( 0.5e-03 0.5e-03 0.5e-03 ); 
        radius  4.0e-05 ; 
        fieldValues  
        (  
volScalarFieldValue n.0 1.0
volScalarFieldValue xi 1.0
volScalarFieldValue T 1710
        );  
    } 

);


// ************************************************************************* //
