/*--------------------------------*- C++ -*----------------------------------*\
| =========                 |                                                 |
| \\      /  F ield         | OpenFOAM: The Open Source CFD Toolbox           |
|  \\    /   O peration     | Version:  3.0.1                                 |
|   \\  /    A nd           | Web:      www.OpenFOAM.org                      |
|    \\/     M anipulation  |                                                 |
\*---------------------------------------------------------------------------*/
FoamFile
{
    version     2.0;
    format      ascii;
    class       dictionary;
    location    "system";
    object      setFieldsDict;
}
// * * * * * * * * * * * * * * * * * * * * * * * * * * * * * * * * * * * * * //

defaultFieldValues
(
    volScalarFieldValue alpha.phase1 0
    volScalarFieldValue xi 0.0
   // volScalarFieldValue Temperature 850
);

regions
(


 /*
    boxToCell
    {
        box (-1 10e-6 -1) (1 90e-6 1);
        fieldValues
        (
    volScalarFieldValue alpha.phase1 1
volScalarFieldValue xi 1.0
        );
    }

    boxToCell
    {
        box (-1 10e-6 20e-6) (1 70e-6 180e-6);
        fieldValues
        (
    volScalarFieldValue Temperature 1000
volScalarFieldValue xi 0.0
        );
    }
 */


);


// ************************************************************************* //
