/*--------------------------------*- C++ -*----------------------------------*\
  =========                 |
  \\      /  F ield         | OpenFOAM: The Open Source CFD Toolbox
   \\    /   O peration     | Website:  https://openfoam.org
    \\  /    A nd           | Version:  6
     \\/     M anipulation  |
\*---------------------------------------------------------------------------*/
FoamFile
{
    version     2.0;
    format      ascii;
    class       dictionary;
    location    "constant";
    object      PhaseFieldProperties;
}
// * * * * * * * * * * * * * * * * * * * * * * * * * * * * * * * * * * * * * //


N_Phases 3184; //gives an approximate grain size of 20 μm

Aniso_strength 0.5;

gamma_pf	1.5;

sigma_P	1.0;
sigma_G	0.25;
lp	1.0e-6;
lg	1.0e-6;
deltaf_g	0.125;
deltaf_p	0.25;
D0	5.0;//0.034;
Qg	20000;//140e3;



//Voronoi Tesselation Parameters
N_Seeds 3183; //used to seed the initial microstructure with tesselatefoam

Xmin -0.05e-3;
Xmax 0.05e-3;
Ymin 0e-3;
Ymax 0.25e-3;
Zmin 0e-3;
Zmax 6e-3;
//Voronoi Tesselation Parameters

