/*--------------------------------*- C++ -*----------------------------------*\
  =========                 |
  \\      /  F ield         | OpenFOAM: The Open Source CFD Toolbox
   \\    /   O peration     | Website:  https://openfoam.org
    \\  /    A nd           | Version:  6
     \\/     M anipulation  |
\*---------------------------------------------------------------------------*/
FoamFile
{
    version     2.0;
    format      ascii;
    class       dictionary;
    location    "constant";
    object      PhaseFieldProperties;
}
// * * * * * * * * * * * * * * * * * * * * * * * * * * * * * * * * * * * * * //

N_Phases 50;

Kg	0.225e-6;
gamma_pf	1.5;
m_g	450000;
Lg	1.285;
m_p	1200000;
Lp	1.285;
Kp	1.5e-6;


//Voronoi Tesselation Parameters
Xmin -0.05e-6;
Xmax 0.05e-6;
Ymin 10e-6;
Ymax 90e-6;
Zmin 0.0;
Zmax 100e-6;
//Voronoi Tesselation Parameters

