/*--------------------------------*- C++ -*----------------------------------*\
| =========                 |                                                 |
| \\      /  F ield         | OpenFOAM: The Open Source CFD Toolbox           |
|  \\    /   O peration     | Version:  3.0.1                                 |
|   \\  /    A nd           | Web:      www.OpenFOAM.org                      |
|    \\/     M anipulation  |                                                 |
\*---------------------------------------------------------------------------*/
FoamFile
{
    version     2.0;
    format      ascii;
    class       dictionary;
    location    "system";
    object      setFieldsDict;
}
// * * * * * * * * * * * * * * * * * * * * * * * * * * * * * * * * * * * * * //

defaultFieldValues
(
    volScalarFieldValue alpha.metal 1
    volScalarFieldValue xi 0.0
);

regions
(



 
 sphereToCell
    {
        centre (0.0 0.005 0.005);
        radius 0.0005;
        fieldValues
        (
volScalarFieldValue n.0 1
volScalarFieldValue xi 1.0
volScalarFieldValue T 1620
        );
    }
    
     sphereToCell
    {
        centre (0.0 0.0025 0.0025);
        radius 0.0005;
        fieldValues
        (
volScalarFieldValue n.1 1
volScalarFieldValue xi 1.0
volScalarFieldValue T 1620
        );
    }
    
     sphereToCell
    {
        centre (0.0 0.0075 0.0075);
        radius 0.0005;
        fieldValues
        (
volScalarFieldValue n.2 1
volScalarFieldValue xi 1.0
volScalarFieldValue T 1620
        );
    }
    
    
   
);


// ************************************************************************* //
