/*--------------------------------*- C++ -*----------------------------------*\
  =========                 |
  \\      /  F ield         | OpenFOAM: The Open Source CFD Toolbox
   \\    /   O peration     | Website:  https://openfoam.org
    \\  /    A nd           | Version:  6
     \\/     M anipulation  |
\*---------------------------------------------------------------------------*/
FoamFile
{
    version     2.0;
    format      ascii;
    class       dictionary;
    location    "constant";
    object      PhaseFieldProperties;
}
// * * * * * * * * * * * * * * * * * * * * * * * * * * * * * * * * * * * * * //

N_Phases 500;

Aniso_strength	0.5;

//Kg	0.225e-6;
gamma_pf	1.5;
//m_g	450000;
//Lg	1.285;
//m_p	1200000;
//Lp	0.5;
//Kp	1.5e-6;


sigma_P	1.0;
sigma_G	0.25;
lp	5.0e-5;
lg	5.0e-5;
deltaf_g	0.125;
deltaf_p	0.25;
D0	5.0;//0.034;
Qg	20000;//140e3;

//Voronoi Tesselation Parameters
N_Seeds 499; //used to seed the initial microstructure with tesselatefoam

Xmin -0.05e-6;
Xmax 0.05e-6;
Ymin 2.5e-3;
Ymax 7.5e-3;
Zmin -2.5e-3;
Zmax 2.5e-3;
//Voronoi Tesselation Parameters
